<routes><vType id="car0" accel="0.8" decel="4.5" length="5.0" minGap="2.5" maxSpeed="55.56" sigma="0.5" tau="1.0" color="yellow" /><flow id="flow_we" begin="0" end="3600" from="edge_wc1" to="edge_c3e" probability="0.2777777777777778" type="car0" /><flow id="flow_ew" begin="0" end="3600" from="edge_ec3" to="edge_c1w" probability="0.2777777777777778" type="car0" /><flow id="flow_n1s1" begin="0" end="3600" from="edge_n1c1" to="edge_c1s1" probability="0.2777777777777778" type="car0" /><flow id="flow_s1n1" begin="0" end="3600" from="edge_s1c1" to="edge_c1n1" probability="0.2777777777777778" type="car0" /><flow id="flow_n2s2" begin="0" end="3600" from="edge_n2c2" to="edge_c2s2" probability="0.2777777777777778" type="car0" /><flow id="flow_s2n2" begin="0" end="3600" from="edge_s2c2" to="edge_c2n2" probability="0.2777777777777778" type="car0" /><flow id="flow_n3s3" begin="0" end="3600" from="edge_n3c3" to="edge_c3s3" probability="0.2777777777777778" type="car0" /><flow id="flow_s3n3" begin="0" end="3600" from="edge_s3c3" to="edge_c3n3" probability="0.2777777777777778" type="car0" /></routes>