<types><type id="default" numLanes="1" speed="50" /></types>