<connections><connection from="edge_wc1" to="edge_c1c2"