<edges><edge id="edge_wc1" from="w" to="c1" type="default" /><edge id="edge_c1w" from="c1" to="w" type="default" /><edge id="edge_n1c1" from="n1" to="c1" type="default" /><edge id="edge_c1n1" from="c1" to="n1" type="default" /><edge id="edge_s1c1" from="s1" to="c1" type="default" /><edge id="edge_c1s1" from="c1" to="s1" type="default" /><edge id="edge_c1c2" from="c1" to="c2" type="default" /><edge id="edge_c2c1" from="c2" to="c1" type="default" /><edge id="edge_n2c2" from="n2" to="c2" type="default" /><edge id="edge_c2n2" from="c2" to="n2" type="default" /><edge id="edge_s2c2" from="s2" to="c2" type="default" /><edge id="edge_c2s2" from="c2" to="s2" type="default" /><edge id="edge_c2c3" from="c2" to="c3" type="default" /><edge id="edge_c3c2" from="c3" to="c2" type="default" /><edge id="edge_n3c3" from="n3" to="c3" type="default" /><edge id="edge_c3n3" from="c3" to="n3" type="default" /><edge id="edge_s3c3" from="s3" to="c3" type="default" /><edge id="edge_c3s3" from="c3" to="s3" type="default" /><edge id="edge_c3e" from="c3" to="e" type="default" /><edge id="edge_ec3" from="e" to="c3" type="default" /></edges>