<nodes><node id="w" x="0" y="0" /><node id="c1" x="100" y="0" type="traffic_light" tl="c1" /><node id="s1" x="100" y="-100" /><node id="n1" x="100" y="100" /><node id="c2" x="200" y="0" type="traffic_light" tl="c2" /><node id="s2" x="200" y="-100" /><node id="n2" x="200" y="100" /><node id="c3" x="300" y="0" type="traffic_light" tl="c3" /><node id="s3" x="300" y="-100" /><node id="n3" x="300" y="100" /><node id="e" x="400" y="0" /></nodes>